<edges>
    <edge id="E1" from="n1" to="n2" priority="1" numLanes="2" speed="10.0" width="7.0"/>
</edges>